/*--------------------------------*- C++ -*----------------------------------*\
| =========                 |                                                 |
| \\      /  F ield         | OpenFOAM: The Open Source CFD Toolbox           |
|  \\    /   O peration     | Version:  v1906                                 |
|   \\  /    A nd           | Web:      www.OpenFOAM.com                      |
|    \\/     M anipulation  |                                                 |
\*---------------------------------------------------------------------------*/
FoamFile
{
    version     2.0;
    format      ascii;
    class       dictionary;
    object      turbulenceProperties;
}
// * * * * * * * * * * * * * * * * * * * * * * * * * * * * * * * * * * * * * //

simulationType LES;

RAS
{
    RASModel            kOmegaSST;

    turbulence          on;

    printCoeffs         on;
}



LES
{
    turbulence      on;

    LESModel        SpalartAllmarasIDDES;


    printCoeffs     on;

    delta           IDDESDelta;

    IDDESDeltaCoeffs
    {
        hmax           maxDeltaxyzCubeRoot;
        maxDeltaxyzCubeRootCoeffs
        {
        }
    }
}

// ************************************************************************* //
