/*--------------------------------*- C++ -*----------------------------------*\
| =========                 |                                                 |
| \\      /  F ield         | OpenFOAM: The Open Source CFD Toolbox           |
|  \\    /   O peration     | Version:  v1906                                 |
|   \\  /    A nd           | Web:      www.OpenFOAM.com                      |
|    \\/     M anipulation  |                                                 |
\*---------------------------------------------------------------------------*/
FoamFile
{
    version     2.0;
    format      ascii;
    class       dictionary;
    object      fvSolution;
}
// * * * * * * * * * * * * * * * * * * * * * * * * * * * * * * * * * * * * * //

PIMPLE
{
    momentumPredictor   yes;
    nCorrectors         3;
    nNonOrthogonalCorrectors 1;
    pRefCell    0;
    pRefValue   1e5;
    nOuterCorrector 1000;

    residualControl
    {
        U
        {
                tolerance  1e-9;
                relTol      0;
        }
        p
        {
                tolerance  1e-9;
                relTol      0;
        }

        h
        {
                tolerance 1e-9;
                relTol    0;
        }
    }




}

// ************************************************************************* //
