/*--------------------------------*- C++ -*----------------------------------*\
| =========                 |                                                 |
| \\      /  F ield         | OpenFOAM: The Open Source CFD Toolbox           |
|  \\    /   O peration     | Version:  v1906                                 |
|   \\  /    A nd           | Web:      www.OpenFOAM.com                      |
|    \\/     M anipulation  |                                                 |
\*---------------------------------------------------------------------------*/
FoamFile
{
    version     2.0;
    format      ascii;
    class       dictionary;
    object      changeDictionaryDict;
}
// * * * * * * * * * * * * * * * * * * * * * * * * * * * * * * * * * * * * * //

boundary
{
    minX
    {
        type            wall;
    }
    maxX
    {
        type            wall;
    }
    minY
    {
        type            wall;
    }
    maxY
    {
        type            wall;
    }
    minZ
    {
        type            wall;
    }
    maxZ
    {
        type            wall;
    }
	

}

U
{
    internalField   uniform (0 0 0);

    boundaryField
    {
        ".*"
        {
            type            fixedValue;
            value           uniform (0 0 0);
        }
        "procBoundary.*"
        {
            type            processor;
        }
    }
}

T
{
    internalField   uniform 300;

    boundaryField
    {
        ".*"
        {
            type            zeroGradient;
        }

        "procBoundary.*"
        {
            type            processor;
        }

        "oil_to_.*"
        {
            type            compressible::turbulentTemperatureCoupledBaffleMixed;
            Tnbr            T;
            kappaMethod     fluidThermo;
            value           uniform 300;
        }
    }
}

epsilon
{
    // Set the value on all bc to non-zero. Not used in simulation
    // since zeroGradient; only used in initialisation.
    internalField   uniform 0.01;

    boundaryField
    {
        ".*"
        {
            type            epsilonWallFunction;
            value           uniform 0.01;
        }
        "procBoundary.*"
        {
            type            processor;
        }
    }
}

k
{
    internalField   uniform 0.1;

    boundaryField
    {
        ".*"
        {
            type            kqRWallFunction;
            value           uniform 0.1;
        }
        "procBoundary.*"
        {
            type            processor;
        }
    }
}

p_rgh
{
    internalField   uniform 1e5;

    boundaryField
    {
        ".*"
        {
            type            fixedFluxPressure;
            value           uniform 1e5;
        }
        "procBoundary.*"
        {
            type            processor;
        }
    }
}

p
{
    internalField   uniform 1e5;

    boundaryField
    {
        ".*"
        {
            type            calculated;
            value           uniform 1e5;
        }
        "procBoundary.*"
        {
            type            processor;
        }
    }
}

rho
{

    internalField    	uniform 8000;

    boundaryField
    {
    	oil_to_sphere
    	{
            type            calculated;
            value           uniform 8000;
    	}
	"procBoundary.*"
        {
            type            processor;
        }

    }
}


omega
{

    internalField       uniform 0.2;

    boundaryField
    {
        "(oil_to_sphere|.*)"
        {
            type            omegaWallFunction;
            value           uniform 0.2;
        }
        "procBoundary.*"
        {
            type            processor;
        }

    }
}


alphat
{

    internalField       uniform 0;

    boundaryField
    {
        "(oil_to_sphere|.*)"
        {
            type            compressible::alphatWallFunction;
            Prt		    0.85;
	    value           uniform 0;
        }
	"procBoundary.*"
        {
            type            processor;
        }


    }
}


nut
{

    internalField       uniform 0;

    boundaryField
    {
        "(oil_to_sphere|.*)"
        {
            type            nutUWallFunction;
            value           uniform 0;
        }
        "procBoundary.*"
        {
            type            processor;
        }

    }
}


// ************************************************************************* //
